/*--------------------------------*- C++ -*----------------------------------*\
| =========                 |                                                 |
| \\      /  F ield         | OpenFOAM: The Open Source CFD Toolbox           |
|  \\    /   O peration     | Version:  2.3.1                                 |
|   \\  /    A nd           | Web:      www.OpenFOAM.org                      |
|    \\/     M anipulation  |                                                 |
\*---------------------------------------------------------------------------*/
FoamFile
{
    version     0.0;
    format      ascii;
    class       polyBoundaryMesh;
    location    "constant/polyMesh";
    object      boundary;
}
// * * * * * * * * * * * * * * * * * * * * * * * * * * * * * * * * * * * * * //


7
(
outlet
{
    type            patch;
    nFaces          30;
    startFace       6368;
}

top
{
    type            slip;
    nFaces          100;
    startFace       6398;
}

bottom
{
    type            wall;
    nFaces          100;
    startFace       6498;
}

inlet
{
    type            patch;
    nFaces          30;
    startFace       6598;
}

front
{
    type            empty;
    nFaces          3251;
    startFace       6628;
}

back
{
    type            empty;
    nFaces          3251;
    startFace       9879;
}

cylinder
{
    type            wall;
    inGroups        1 ( wall );
    nFaces          32;
    startFace       13130;
}

)


// ************************************************************************* //
