/*--------------------------------*- C++ -*----------------------------------*\
| =========                 |                                                 |
| \\      /  F ield         | OpenFOAM: The Open Source CFD Toolbox           |
|  \\    /   O peration     | Version:  2.3.1                                 |
|   \\  /    A nd           | Web:      www.OpenFOAM.org                      |
|    \\/     M anipulation  |                                                 |
\*---------------------------------------------------------------------------*/
FoamFile
{
    version     2.0;
    format      ascii;
    class       dictionary;
    location    "system";
    object      controlDict;
}
// * * * * * * * * * * * * * * * * * * * * * * * * * * * * * * * * * * * * * //

application     pisoFoam;

startFrom       startTime;

startTime       0;

stopAt          endTime;

endTime         40;

deltaT          0.002;

writeControl    timeStep;

writeInterval   100;

purgeWrite      0;

writeFormat     ascii;

writePrecision  6;

writeCompression off;

timeFormat      general;

timePrecision   6;

runTimeModifiable true;

libs
(
    "libgroovyBC.so" 
    "libutilityFunctionObjects.so"
);

functions
{
    S
    {
        type            scalarTransport;
        outputControl   outputTime;
        resetOnStartUp  false;
        autoSchemes     true;
        fvOptions       
        {
            S-01
            {
                type            scalarExplicitSetValue;
                active          true;
                selectionMode   points;
                points
                4( 
                    (-0.245  0.105 0)
                    (-0.245 -0.105 0)

                    (-0.245  0.035 0)
                    (-0.245 -0.035 0)
                );

                cellZone        sampleInlet;
                scalarExplicitSetValueCoeffs
                {
                    injectionRate
                    {
                        S   1;
                    }
                }
            }
        };
    }
}

// ************************************************************************* //
