/*--------------------------------*- C++ -*----------------------------------*\
| =========                 |                                                 |
| \\      /  F ield         | OpenFOAM: The Open Source CFD Toolbox           |
|  \\    /   O peration     | Version:  v3.0+                                 |
|   \\  /    A nd           | Web:      www.OpenFOAM.com                      |
|    \\/     M anipulation  |                                                 |
\*---------------------------------------------------------------------------*/
FoamFile
{
    version     2.0;
    format      ascii;
    class       dictionary;
    object      topoSetDict;
}
// * * * * * * * * * * * * * * * * * * * * * * * * * * * * * * * * * * * * * //

actions
(
    // Get both sides of ami
    // ~~~~~~~~~~~~~~~~~~~~~

    // Create faceSet using patch interfaceInner
    {
        name    interfaceInnerFaceSet;
        type    faceSet;
        action  new;
        source  patchToFace;
        sourceInfo
        {
            name    interfaceInner;
        }
    }
    // Create faceZoneSet using face set
    {
        name    interfaceInnerFaceZone;
        type    faceZoneSet;
        action  new;
        source  setToFaceZone;
        sourceInfo
        {
            faceSet interfaceInnerFaceSet;
        }
    }

    // Create faceSet using patch interfaceOuter
    {
        name    interfaceOuterFaceSet;
        type    faceSet;
        action  new;
        source  patchToFace;
        sourceInfo
        {
            name    interfaceOuter;
        }
    }
    // Create faceZoneSet using face set
    {
        name    interfaceOuterFaceZone;
        type    faceZoneSet;
        action  new;
        source  setToFaceZone;
        sourceInfo
        {
            faceSet interfaceOuterFaceSet;
        }
    }

    // Create cellZone for moving cells in inlet channel
    {
        name    movingZoneSet;
        type    cellSet;
        action  new;
        source  cylinderToCell;
        sourceInfo
        {
            p1 ( 0 0 -0.05 );
            p2 ( 0 0  0.05);
            radius 0.05;
        }
    }
    {
        name    movingZone;
        type    cellZoneSet;
        action  new;
        source  setToCellZone;
        sourceInfo
        {
            set     movingZoneSet;
        }
    }
    // Create cellZone for passive scalar 
    {
        name    scalarCellSet;
        type    cellSet;
        action  new;
        source  cylinderToCell;
        sourceInfo
        {
            p1 ( 0 0 -0.05 );
            p2 ( 0 0  0.05);
            radius 0.01;
        }
    }
);

// ************************************************************************* //
